/*--------------------------------*- C++ -*----------------------------------*\
| =========                 |                                                 |
| \\      /  F ield         | OpenFOAM: The Open Source CFD Toolbox           |
|  \\    /   O peration     | Version:  v2306                                 |
|   \\  /    A nd           | Website:  www.openfoam.com                      |
|    \\/     M anipulation  |                                                 |
\*---------------------------------------------------------------------------*/
FoamFile
{
    version     2.0;
    format      ascii;
    class       dictionary;
    object      blockMeshDict;
}
// * * * * * * * * * * * * * * * * * * * * * * * * * * * * * * * * * * * * * //

scale   1;

vertices
(
    (-0.33 -0.33 -0.044)
    ( 0.11 -0.33 -0.044)
    ( 0.11  0.11 -0.044)
    (-0.33  0.11 -0.044)
	(-0.33 -0.33  0.044)
    ( 0.11 -0.33  0.044)
    ( 0.11  0.11  0.044)
    (-0.33  0.11  0.044)
);

blocks
(
    hex (0 1 2 3 4 5 6 7) (100 100 20) simpleGrading (1 1 1)
);

edges
(
);

boundary
(
);


// ************************************************************************* //
