/*--------------------------------*- C++ -*----------------------------------*\
| =========                 |                                                 |
| \\      /  F ield         | OpenFOAM: The Open Source CFD Toolbox           |
|  \\    /   O peration     | Version:  v2306                                 |
|   \\  /    A nd           | Website:  www.openfoam.com                      |
|    \\/     M anipulation  |                                                 |
\*---------------------------------------------------------------------------*/
FoamFile
{
    version     2.0;
    format      ascii;
    class       dictionary;
    object      blockMeshDict;
}
// * * * * * * * * * * * * * * * * * * * * * * * * * * * * * * * * * * * * * //

scale   1;

vertices
(
    (-0.5 -0.5 -0.05)
    ( 0.2 -0.5 -0.05)
    ( 0.2  0.2 -0.05)
    (-0.5  0.2 -0.05)
	(-0.5 -0.5  0.05)
    ( 0.2 -0.5  0.05)
    ( 0.2  0.2  0.05)
    (-0.5  0.2  0.05)
);

blocks
(
    hex (0 1 2 3 4 5 6 7) (140 140 20) simpleGrading (1 1 1)
);

edges
(
);

boundary
(
);


// ************************************************************************* //
